# PHREEQC database, data from THERMODDEM/THERMOCHIMIE				
# Data prepared and compiled by Ph. Blanc, A. Lassin, P. Piantone and C. Nowak					
# Created: 21/01/2008 14:33:53					
# from the BRGM institute (french geological survey)					
# it is the user's responsibility to remain in the					
#valid temperature range for all the data used.					
						
#Kindly send comments or corrections to Philippe Blanc at p.blanc@brgm.fr					
						
LLNL_AQUEOUS_MODEL_PARAMETERS					
 -temperatures					
         0.0100   25.0000   60.0000  100.0000					
       150.0000  200.0000  250.0000  300.0000					
#debye huckel a (adh)					
 -dh_a					
         0.4939    0.5114    0.5465    0.5995					
         0.6855    0.7994    0.9593    1.2180					
#debye huckel b (bdh)					
 -dh_b					
         0.3253    0.3288    0.3346    0.3421					
         0.3525    0.3639    0.3766    0.3925					
 -bdot					
         0.0374    0.0410    0.0438    0.0460					
         0.0470    0.0470    0.0340    0.0000					
#cco2   (coefficients for the Drummond (1981) polynomial)					
 -co2_coefs					
        -1.0312              0.0012806					
          255.9                 0.4445					
	-0.00161				
NAMED_EXPRESSIONS					
#					
# formation of O2 from H2O 					
# 2H2O =  O2 + 4H+ + 4e-  					
#					
	Log_K_O2				
		log_k	-85.988
		delta_H	0.000  kJ/mol
#					
	 -analytic	2.1434e+02	3.0027e-02	-4.2124e+04	-7.2117e+01	9.2923e+05		
#Range:  0-300				
					# Calculated enthalpy of reaction
						
SOLUTION_MASTER_SPECIES					
						
#element species        alk     gfw_formula     element_gfw					
Alkalinity	HCO3-	 1	Ca0.5(CO3)0.5	 50.05
E	e-	 0	 0	 0
Al	Al+++	 0	Al	 26.9815
C	HCO3-	 1	C	 12.01115
C(4)	HCO3-	 1	C	
C(-4)	CH4	 0	C	
C(2)	CO	 0	C	 
Ca	Ca++	 0	Ca	 40.078
Cl	Cl-	 0	Cl	 35.453
Cl(-1)	Cl-	 0	Cl	
Cl(1)	ClO-	 0	Cl	
Cl(3)	ClO2-	 0	Cl	
Cl(4)	ClO2	 0	Cl	
Cl(5)	ClO3-	 0	Cl	
Cl(7)	ClO4-	 0	Cl	 
Fe	Fe++	 0	Fe	 55.847
Fe(2)	Fe++	-2	Fe	
Fe(3)	Fe+++	-2	Fe	 
H	H+	-1	H	 1.00797
H(1)	H+	-1	 0	
H(0)	H2	 0	H	 
K	K+	 0	K	 39.102
Mg	Mg++	 0	Mg	 24.312
N	NH3	 1	N	 14.0067
N(-3)	NH3	 1	N	
N(0)	N2	 0	N	
N(-5)	CN-	 0	N	
N(3)	NO2-	 0	N	
N(5)	NO3-	 0	N	 
Na	Na+	 0	Na	 22.9898
O	H2O	 0	O	 15.9994
O(-2)	H2O	 0	O	
O(0)	O2	 2	 0	 
S	SO4--	 0	S	 32.064
S(6)	SO4--	 0	S	 
S(8)	HSO5-	 0	S	
S(2)	S2O3--	 0	S	
S(3)	S2O4--	 0	S	
S(5)	S2O6--	 0	S	
S(7)	S2O8--	 0	S	
S(4)	SO3--	 0	S	
S(-2)	HS-	 0	S	 
Si	H4SiO4	 0	Si	 28.086
Sr	Sr++	 0	Sr	 87.62

SOLUTION_SPECIES

H2O = H2O
	-llnl_gamma	3.0
	log_k 0.0
	-delta_H    0.0   kJ/mol  # Convention
#	References DGf or LogK 89cox/wag ; DHf 89cox/wag ; S° 89cox/wag ; Cp slop98

H+ = H+
	-llnl_gamma	9.0
	log_k 0.0
	-delta_H    0.0   kJ/mol  # Convention
#	References DGf or LogK By convention ; DHf By convention ; S° By convention ; Cp 97asho/sas

Al+++ = Al+++
	-llnl_gamma	9.0
	log_k 0.0
	-delta_H    0.0   kJ/mol  # Convention
#	References DGf or LogK 89cox/wag ; DHf 06bla/pia ; S° n/a ; Cp 95pok/hel

Ca++ = Ca++
	-llnl_gamma	6.0
	log_k 0.0
	-delta_H    0.0   kJ/mol  # Convention
#	References DGf or LogK 89cox/wag ; DHf n/a ; S° 89cox/wag ; Cp 97asho/sas

Cl- = Cl-
	-llnl_gamma	3.0
	log_k 0.0
	-delta_H    0.0   kJ/mol  # Convention
#	References DGf or LogK 89cox/wag ; DHf n/a ; S° 89cox/wag ; Cp 97asho/sas

Fe++ = Fe++
	-llnl_gamma	6.0
	log_k 0.0
	-delta_H    0.0   kJ/mol  # Convention
#	References DGf or LogK 04chi ; DHf n/a ; S° 04chi ; Cp 88sho/hel,85hel,89bsho/hel,97asho/sas

H4SiO4 = H4SiO4
	-llnl_gamma	3.0
	log_k 0.0
	-delta_H    0.0   kJ/mol  # Convention
#	References DGf or LogK n/a ; DHf 06bla/pia ; S° 06bla/pia ; Cp 06bla/pia

HCO3- = HCO3-
	-llnl_gamma	4.0
	log_k 0.0
	-delta_H    0.0   kJ/mol  # Convention
#	References DGf or LogK 89cox/wag ; DHf n/a ; S° 89cox/wag ; Cp 97asho/sas

K+ = K+
	-llnl_gamma	3.0
	log_k 0.0
	-delta_H    0.0   kJ/mol  # Convention
#	References DGf or LogK 89cox/wag ; DHf n/a ; S° 89cox/wag ; Cp 97asho/sas

Mg++ = Mg++
	-llnl_gamma	8.0
	log_k 0.0
	-delta_H    0.0   kJ/mol  # Convention
#	References DGf or LogK 89cox/wag ; DHf n/a ; S° 89cox/wag ; Cp 97asho/sas

Na+ = Na+
	-llnl_gamma	4.0
	log_k 0.0
	-delta_H    0.0   kJ/mol  # Convention
#	References DGf or LogK 89cox/wag ; DHf n/a ; S° 89cox/wag ; Cp 97asho/sas


NH3 = NH3
	-llnl_gamma	3.0
	log_k 0.0
	-delta_H    0.0   kJ/mol  # Convention
#	References DGf or LogK 89bsho/hel, 01sch/sho ; DHf 89bsho/hel, 01sch/sho ; S° 89bsho/hel, 01sch/sho ; Cp 89bsho/hel, 01sch/sho


SO4-- = SO4--
	-llnl_gamma	4.0
	log_k 0.0
	-delta_H    0.0   kJ/mol  # Convention
#	References DGf or LogK 89cox/wag ; DHf n/a ; S° 89cox/wag ; Cp 97asho/sas

Sr++ = Sr++
	-llnl_gamma	5.0
	log_k 0.0
	-delta_H    0.0   kJ/mol  # Convention
#	References DGf or LogK 97asho/sas ; DHf n/a ; S° 97asho/sas ; Cp 97asho/sas


e- = e-
	log_k 0.0
	-delta_H    0.0   kJ/mol  # Convention
#	References : Convention

  2 H2O = O2 + 4 H+ + 4 e-
	-CO2_llnl_gamma
	log_k	-85.988
	delta_H	0.000  kJ/mol
	 -analytic	2.1434e+02	3.0027e-02	-4.2124e+04	-7.2117e+01	9.2923e+05		

 4H4SiO4 = (SiO2)4(OH)4---- + 4H2O + 4H+
	-llnl_gamma	4.0
	log_k		-39.200
	-delta_H		4701.457	kJ/mol	# References :n/a
	-analytic	-3.92000e+01	0.00000e+00	0.00000e+00	0.00000e+00	0.00000e+00
#	References DGf or LogK 01fel/cho ; DHf n/a ; S° n/a ; Cp n/a


 1Al+++ + 2H2O = Al(OH)2+ + 2H+
	-llnl_gamma	4.0
	log_k		-10.584
	-delta_H		98.264	kJ/mol	# References :95pok/hel
	-analytic	3.00160e+02	5.41526e-02	-2.07434e+04	-1.08328e+02	9.54011e+05
#	References DGf or LogK n/a ; DHf 95pok/hel ; S° 95pok/hel ; Cp 95pok/hel


 1Al+++ + 1H4SiO4 = AlH3SiO4++ + 1H+
	-llnl_gamma	4.5
	log_k		-2.380
	-delta_H		77.382	kJ/mol	# References :n/a
	-analytic	-3.75313e+02	-2.92372e-02	2.72955e+04	1.28953e+02	-2.57662e+06
#	References DGf or LogK 01tag/sch, d'après 98sal/pok ; DHf n/a ; S° 01tag/sch, d'après 98sal/pok ; Cp 01tag/sch, d'après 98sal/pok


 1Al+++ + 2H2O = AlO2- + 4H+
	-llnl_gamma	4.0
	log_k		-22.873
	-delta_H		180.881	kJ/mol	# References :95pok/hel
	-analytic	-1.78065e+02	-2.68922e-02	1.86724e+03	6.68385e+01	-7.50500e+05
#	References DGf or LogK n/a ; DHf 95pok/hel ; S° 95pok/hel ; Cp 95pok/hel

 1Al+++ + 1H2O = AlOH++ + 1H+
	-llnl_gamma	4.5
	log_k		-4.950
	-delta_H		49.759	kJ/mol	# References :n/a
	-analytic	1.61456e+02	3.01851e-02	-1.15056e+04	-5.80546e+01	6.07667e+05
#	References DGf or LogK 95pok/hel ; DHf n/a ; S° 95pok/hel ; Cp 95pok/hel


 1Al+++ + 1SO4-- = AlSO4+
	-llnl_gamma	4.5
	log_k		3.170
	-delta_H		18.869	kJ/mol	# References :n/a
	-analytic	2.31931e+03	3.61431e-01	-1.34935e+05	-8.35858e+02	8.61887e+06
#	References DGf or LogK 01tag/sch ; DHf n/a ; S° 01tag/sch ; Cp 01tag/sch



 1HCO3- + 1Ca++ = Ca(HCO3)+
	-llnl_gamma	4.5
	log_k		1.103
	-delta_H		-8.894	kJ/mol	# References :n/a
	-analytic	8.68609e+02	1.45834e-01	-4.82814e+04	-3.16733e+02	3.08324e+06
#	References DGf or LogK 82plu/bus ; DHf n/a ; S° 99aki/zot ; Cp 99aki/zot

 1Ca++ + 1Cl- = CaCl+
	-llnl_gamma	4.0
	log_k		-0.290
	-delta_H		7.150	kJ/mol	# References :n/a
	-analytic	7.84304e+02	1.29811e-01	-4.34926e+04	-2.85725e+02	2.63001e+06
#	References DGf or LogK 97sve/sho ; DHf n/a ; S° 97sve/sho ; Cp 97sve/sho

 1Ca++ + 2Cl- = CaCl2
	-llnl_gamma	3.0
	log_k		-0.640
	-delta_H		-5.857	kJ/mol	# References :n/a
	-analytic	1.56212e+03	2.55796e-01	-8.58012e+04	-5.69819e+02	5.22119e+06
#	References DGf or LogK 97sve/sho ; DHf n/a ; S° 97sve/sho ; Cp 97sve/sho

 1HCO3- + 1Ca++ = CaCO3 + 1H+
	-llnl_gamma	3.0
	log_k		-7.107
	-delta_H		29.530	kJ/mol	# References :82plu/bus
	-analytic	6.95433e+02	1.16330e-01	-3.61525e+04	-2.56844e+02	1.74027e+06
#	References DGf or LogK 82plu/bus ; DHf 82plu/bus ; S° n/a ; Cp 97sve/sho


 1Ca++ + 1H2O = CaOH+ + 1H+
	-llnl_gamma	4.0
	log_k		-12.780
	-delta_H		77.207	kJ/mol	# References :n/a
	-analytic	1.31296e+02	2.14182e-02	-1.01897e+04	-4.82243e+01	2.70321e+05
#	References DGf or LogK 87gar/par ; DHf n/a ; S° 97asho/sas ; Cp 97asho/sas

 1Ca++ + 1SO4-- = CaSO4
	-llnl_gamma	3.0
	log_k		2.310
	-delta_H		4.292	kJ/mol	# References :n/a
	-analytic	1.72034e+03	2.65735e-01	-9.42554e+04	-6.23564e+02	5.49730e+06
#	References DGf or LogK 53bell/geo ; DHf n/a ; S° 97sve/sho ; Cp n/a


 1HCO3- + 1H+ + 1H2O = CH4 + 2O2
	-llnl_gamma	3.0
	log_k		-144.116
	-delta_H		863.587	kJ/mol	# References :01sch/sho
	-analytic	1.12998e+03	1.82310e-01	-1.12412e+05	-4.05513e+02	4.62149e+06
#	References DGf or LogK 01sch/sho ; DHf 01sch/sho ; S° 01sch/sho ; Cp 01sch/sho

 1Cl- + 1ClO- + 2H+ = Cl2 + 1H2O
	-llnl_gamma	3.0
	log_k		10.874
	-delta_H		-35.040	kJ/mol	# References :82wag/eva
	-analytic	1.25714e+03	2.11334e-01	-6.62374e+04	-4.57961e+02	4.09635e+06
#	References DGf or LogK n/a ; DHf 82wag/eva ; S° 82wag/eva ; Cp 01sch/sho

 0.5O2 + 1Cl- = ClO-
	-llnl_gamma	4.0
	log_k		-15.089
	-delta_H		66.036	kJ/mol	# References :97asho/sas
	-analytic	-1.27182e+02	-1.75488e-02	4.91743e+03	4.36329e+01	-6.34148e+05
#	References DGf or LogK 97asho/sas ; DHf 97asho/sas ; S° 97asho/sas ; Cp 97asho/sas

 1O2 + 1Cl- = ClO2-
	-llnl_gamma	4.0
	log_k		-23.095
	-delta_H		112.688	kJ/mol	# References :97asho/sas
	-analytic	-1.61808e+02	-2.41055e-02	5.18549e+03	5.59816e+01	-8.90223e+05
#	References DGf or LogK 97asho/sas ; DHf 97asho/sas ; S° 97asho/sas ; Cp 97asho/sas

 1.25O2 + 1Cl- + 1H+ = ClO2 + 0.5H2O
	-llnl_gamma	3.0
	log_k		-19.630
	-delta_H		114.226	kJ/mol	# References :01sch/sho
	-analytic	1.72049e+02	4.24307e-02	-9.64311e+03	-6.85214e+01	-2.16313e+05
#	References DGf or LogK 01sch/sho ; DHf 01sch/sho ; S° 01sch/sho ; Cp 01sch/sho

 1.5O2 + 1Cl- = ClO3-
	-llnl_gamma	3.5
	log_k		-17.248
	-delta_H		81.308	kJ/mol	# References :97asho/sas
	-analytic	-1.73543e+02	-2.71880e-02	8.41489e+03	5.99938e+01	-1.09094e+06
#	References DGf or LogK 97asho/sas ; DHf 97asho/sas ; S° 97asho/sas ; Cp 97asho/sas

 2O2 + 1Cl- = ClO4-
	-llnl_gamma	3.5
	log_k		-15.809
	-delta_H		63.247	kJ/mol	# References :89cox/wag
	-analytic	-2.64670e+02	-4.03050e-02	1.54460e+04	9.16006e+01	-1.56335e+06
#	References DGf or LogK 97asho/sas ; DHf 89cox/wag ; S° 89cox/wag ; Cp 97asho/sas

 1HCO3- + 1NH3 = CN- + 0.5O2 + 2H2O
	-llnl_gamma	3.0
	log_k		-56.048
	-delta_H		344.164	kJ/mol	# References :97asho/sas
	-analytic	1.18527e+02	1.72569e-02	-2.63240e+04	-4.01205e+01	6.97619e+05
#	References DGf or LogK 97asho/sas ; DHf 97asho/sas ; S° 97asho/sas ; Cp 97asho/sas

 1HCO3- + 1H+ = CO + 0.5O2 + 1H2O
	-llnl_gamma	3.0
	log_k		-41.718
	-delta_H		277.074	kJ/mol	# References :93sho/mck, 01sch/sho
	-analytic	8.53548e+02	1.39334e-01	-6.46270e+04	-3.06481e+02	3.40650e+06
#	References DGf or LogK n/a ; DHf 93sho/mck, 01sch/sho ; S° 82wag/eva ; Cp 93sho/mck, 01sch/sho


 1HCO3- + 1H+ = CO2 + 1H2O
	-CO2_llnl_gamma
	log_k		6.353
	-delta_H		-9.160	kJ/mol	# References :89cox/wag
	-analytic	6.82172e+02	1.14322e-01	-3.81658e+04	-2.46590e+02	2.51368e+06
#	References DGf or LogK n/a ; DHf 89cox/wag ; S° 89cox/wag ; Cp 89bsho/hel, 01sch/sho


 1HCO3- = CO3-- + 1H+
	-llnl_gamma	4.5
	log_k		-10.327
	-delta_H		14.700	kJ/mol	# References :89cox/wag
	-analytic	-7.70584e+02	-1.24335e-01	4.20388e+04	2.77395e+02	-2.67274e+06
#	References DGf or LogK n/a ; DHf 89cox/wag ; S° 89cox/wag ; Cp 97asho/sas

 2HCO3- + 1Fe+++ = Fe(CO3)2- + 2H+
	-llnl_gamma	4.5
	log_k		-1.053
	-delta_H		20.240	kJ/mol	# References :n/a
	-analytic	-1.05340e+00	0.00000e+00	0.00000e+00	0.00000e+00	0.00000e+00
#	References DGf or LogK 04chi ; DHf n/a ; S° n/a ; Cp n/a

 2HCO3- + 1Fe++ = Fe(CO3)2-- + 2H+
	-llnl_gamma	4.5
	log_k		-13.203
	-delta_H		87.402	kJ/mol	# References :n/a
	-analytic	1.80425e+03	2.77339e-01	-1.02246e+05	-6.54809e+02	5.60717e+06
#	References DGf or LogK 04chi ; DHf n/a ; S° 04chi ; Cp n/a

 0.25O2 + 1Fe++ + 1H+ = Fe+++ + 0.5H2O
	-llnl_gamma	9.0
	log_k		8.492
	-delta_H		-98.882	kJ/mol	# References :04chi
	-analytic	-2.12373e+02	-3.53011e-02	1.60599e+04	7.47000e+01	-6.50245e+05
#	References DGf or LogK 06bla/pia ; DHf 04chi ; S° 04chi ; Cp 88sho/hel,89bsho/hel,97asho/sas

 1Cl- + 1Fe++ = FeCl+
	-llnl_gamma	4.0
	log_k		-0.160
	-delta_H		4.035	kJ/mol	# References :n/a
	-analytic	8.08653e+02	1.31822e-01	-4.50883e+04	-2.94240e+02	2.77260e+06
#	References DGf or LogK 04chi ; DHf n/a ; S° 04chi ; Cp 97sve/sho

 1Cl- + 1Fe+++ = FeCl++
	-llnl_gamma	4.5
	log_k		1.480
	-delta_H		4.373	kJ/mol	# References :n/a
	-analytic	8.11249e+02	1.32447e-01	-4.47740e+04	-2.94810e+02	2.70260e+06
#	References DGf or LogK 04chi ; DHf n/a ; S° 04chi ; Cp 97sve/sho

 2Cl- + 1Fe++ = FeCl2
	-llnl_gamma	3.0
	log_k		-8.170
	-delta_H		99.070	kJ/mol	# References :n/a
	-analytic	1.61441e+03	2.61126e-01	-9.35048e+04	-5.84789e+02	5.35214e+06
#	References DGf or LogK 04chi ; DHf n/a ; S° 04chi ; Cp 97sve/sho

 2Cl- + 1Fe+++ = FeCl2+
	-llnl_gamma	4.5
	log_k		2.400
	-delta_H		30.961	kJ/mol	# References :n/a
	-analytic	1.77732e+03	2.87477e-01	-9.75018e+04	-6.45416e+02	5.63905e+06
#	References DGf or LogK 04chi ; DHf n/a ; S° 04chi ; Cp n/a

 1HCO3- + 1Fe++ = FeCO3 + 1H+
	-llnl_gamma	3.0
	log_k		-4.637
	-delta_H		11.192	kJ/mol	# References :n/a
	-analytic	9.47036e+02	1.48162e-01	-5.17353e+04	-3.45654e+02	2.93091e+06
#	References DGf or LogK 04chi ; DHf n/a ; S° 04chi ; Cp n/a

 1HCO3- + 1Fe+++ = FeCO3+ + 1H+
	-llnl_gamma	4.5
	log_k		-0.607
	-delta_H		11.192	kJ/mol	# References :n/a
	-analytic	-6.06700e-01	0.00000e+00	0.00000e+00	0.00000e+00	0.00000e+00
#	References DGf or LogK 04chi ; DHf n/a ; S° n/a ; Cp n/a

 1HCO3- + 1Fe++ + 1H2O = FeCO3OH- + 2H+
	-llnl_gamma	4.5
	log_k		-14.358
	-delta_H		11.192	kJ/mol	# References :n/a
	-analytic	-1.43577e+01	0.00000e+00	0.00000e+00	0.00000e+00	0.00000e+00
#	References DGf or LogK 04chi ; DHf n/a ; S° n/a ; Cp n/a

 1HCO3- + 1Fe++ = FeHCO3+
	-llnl_gamma	4.5
	log_k		1.440
	-delta_H		5.889	kJ/mol	# References :n/a
	-analytic	9.52184e+02	1.48162e-01	-5.14583e+04	-3.45654e+02	2.93091e+06
#	References DGf or LogK 04chi ; DHf n/a ; S° 04chi ; Cp n/a


 1Fe++ + 1H2O = FeO + 2H+
	-llnl_gamma	3.0
	log_k		-20.600
	-delta_H		121.919	kJ/mol	# References :04chi
	-analytic	2.98017e+02	4.80333e-02	-2.10476e+04	-1.09346e+02	7.31117e+05
#	References DGf or LogK 04chi ; DHf 04chi ; S° n/a ; Cp 97asho/sas

 1Fe+++ + 1H2O = FeO+ + 2H+
	-llnl_gamma	4.5
	log_k		-5.670
	-delta_H		71.546	kJ/mol	# References :04chi
	-analytic	2.42936e+02	3.98115e-02	-1.28957e+04	-8.86096e+01	1.80800e+05
#	References DGf or LogK 04chi ; DHf 04chi ; S° n/a ; Cp 97asho/sas

 1Fe+++ + 2H2O = FeO2- + 4H+
	-llnl_gamma	4.5
	log_k		-21.600
	-delta_H		133.471	kJ/mol	# References :04chi
	-analytic	-1.70982e+02	-2.93161e-02	6.00065e+03	6.09738e+01	-1.14511e+06
#	References DGf or LogK 04chi ; DHf 04chi ; S° n/a ; Cp 97asho/sas

 1Fe++ + 2H2O = FeO2-- + 4H+
	-llnl_gamma	4.0
	log_k		-46.300
	-delta_H		162.718	kJ/mol	# References :n/a
	-analytic	-4.63000e+01	0.00000e+00	0.00000e+00	0.00000e+00	0.00000e+00
#	References DGf or LogK 04chi ; DHf n/a ; S° n/a ; Cp n/a

 1Fe++ + 1H2O = FeOH+ + 1H+
	-llnl_gamma	4.0
	log_k		-9.500
	-delta_H		57.486	kJ/mol	# References :04chi
	-analytic	2.00435e+02	3.00512e-02	-1.39473e+04	-7.25037e+01	6.47998e+05
#	References DGf or LogK 04chi ; DHf 04chi ; S° n/a ; Cp 97asho/sas

 1Fe+++ + 1H2O = FeOH++ + 1H+
	-llnl_gamma	4.5
	log_k		-2.190
	-delta_H		43.510	kJ/mol	# References :04chi
	-analytic	1.83895e+02	2.84777e-02	-1.10914e+04	-6.55415e+01	4.26867e+05
#	References DGf or LogK 04chi ; DHf 04chi ; S° n/a ; Cp 97asho/sas


 1Fe++ + 1SO4-- = FeSO4
	-llnl_gamma	3.0
	log_k		2.210
	-delta_H		4.613	kJ/mol	# References :n/a
	-analytic	1.72360e+03	2.70847e-01	-9.48765e+04	-6.25340e+02	5.63887e+06
#	References DGf or LogK 04chi ; DHf n/a ; S° 04chi ; Cp n/a

 1Fe+++ + 1SO4-- = FeSO4+
	-llnl_gamma	4.5
	log_k		4.150
	-delta_H		25.940	kJ/mol	# References :04chi
	-analytic	1.89052e+03	3.00364e-01	-1.04311e+05	-6.84892e+02	6.10316e+06
#	References DGf or LogK 04chi ; DHf 04chi ; S° n/a ; Cp n/a


 1H2O = H2 + 0.5O2
	-CO2_llnl_gamma
	log_k		-46.070
	-delta_H		275.563	kJ/mol	# References :82wag/eva
	-analytic	1.92664e+02	3.37230e-02	-2.64928e+04	-6.88278e+01	9.22381e+05
#	References DGf or LogK 82wag/eva ; DHf 82wag/eva ; S° 82wag/eva ; Cp 89bsho/hel, 01sch/sho


 0.666666666666667N2 + 0.666666666666667NO2- + 0.666666666666667H2O + 0.666666666666667H+ = H2N2O2
	-llnl_gamma	3.0
	log_k		-35.639
	-delta_H		209.925	kJ/mol	# References :97asho/sas
	-analytic	5.51348e+02	8.32199e-02	-4.10157e+04	-1.99481e+02	1.72193e+06
#	References DGf or LogK 97asho/sas ; DHf 97asho/sas ; S° 97asho/sas ; Cp 97asho/sas

 1HS- + 1H+ = H2S
	-llnl_gamma	3.0
	log_k		6.989
	-delta_H		-22.300	kJ/mol	# References :89cox/wag
	-analytic	7.48406e+02	1.19818e-01	-4.13470e+04	-2.70323e+02	2.70545e+06
#	References DGf or LogK n/a ; DHf 89cox/wag ; S° 89cox/wag ; Cp 89bsho/hel, 01sch/sho

 1S2O3-- + 2H+ = H2S2O3
	-llnl_gamma	3.0
	log_k		2.320
	-delta_H		22.917	kJ/mol	# References :n/a
	-analytic	1.49785e+03	2.38143e-01	-8.40489e+04	-5.42066e+02	5.03796e+06
#	References DGf or LogK 04chi ; DHf n/a ; S° 97asho/sas ; Cp 97asho/sas

 1S2O4-- + 2H+ = H2S2O4
	-llnl_gamma	3.0
	log_k		2.800
	-delta_H		20.194	kJ/mol	# References :n/a
	-analytic	1.52382e+03	2.41879e-01	-8.55041e+04	-5.51336e+02	5.14655e+06
#	References DGf or LogK 04chi ; DHf n/a ; S° 97asho/sas ; Cp 97asho/sas

 1H4SiO4 = H2SiO4-- + 2H+
	-llnl_gamma	4.5
	log_k		-23.270
	-delta_H		75.000	kJ/mol	# References :92gre/fug
	-analytic	8.51733e+01	-1.19772e-03	-8.30428e+03	-3.24759e+01	1.12041e+04
#	References DGf or LogK 01fel/cho ; DHf 92gre/fug ; S° n/a ; Cp 88phi

 1SO3-- + 2H+ = H2SO3
	-llnl_gamma	3.0
	log_k		9.030
	-delta_H		21.453	kJ/mol	# References :n/a
	-analytic	1.29476e+03	2.18164e-01	-7.30298e+04	-4.67718e+02	4.57804e+06
#	References DGf or LogK 04chi ; DHf n/a ; S° 04chi ; Cp 04chi

 1Al+++ + 2H2O = HAlO2 + 3H+
	-llnl_gamma	3.0
	log_k		-16.422
	-delta_H		144.686	kJ/mol	# References :95pok/hel
	-analytic	3.45610e+02	6.03107e-02	-2.57878e+04	-1.23756e+02	1.12923e+06
#	References DGf or LogK n/a ; DHf 95pok/hel ; S° 95pok/hel ; Cp 95pok/hel

 1Cl- + 1H+ = HCl
	-llnl_gamma	3.0
	log_k		-0.710
	-delta_H		-12.297	kJ/mol	# References :n/a
	-analytic	4.76805e+02	9.08132e-02	-2.54571e+04	-1.77024e+02	1.67351e+06
#	References DGf or LogK 97tag/zot ; DHf n/a ; S° 99aki/zot, d'après 97tag/zot ; Cp 99aki/zot, d'après 97tag/zot

 1ClO- + 1H+ = HClO
	-llnl_gamma	3.0
	log_k		7.550
	-delta_H		-13.807	kJ/mol	# References :97asho/sas
	-analytic	7.25218e+02	1.14764e-01	-3.91213e+04	-2.61748e+02	2.40081e+06
#	References DGf or LogK 97asho/sas ; DHf 97asho/sas ; S° 97asho/sas ; Cp 97asho/sas

 1ClO2- + 1H+ = HClO2
	-llnl_gamma	3.0
	log_k		1.979
	-delta_H		14.644	kJ/mol	# References :97asho/sas
	-analytic	7.88235e+02	1.24334e-01	-4.45918e+04	-2.84503e+02	2.68641e+06
#	References DGf or LogK 97asho/sas ; DHf 97asho/sas ; S° 97asho/sas ; Cp 97asho/sas
 1Fe++ + 2H2O = HFeO2- + 3H+
	-llnl_gamma	4.5
	log_k		-31.800
	-delta_H		140.327	kJ/mol	# References :04chi
	-analytic	-1.76510e+02	-3.47558e-02	4.90853e+02	6.37165e+01	-3.76796e+05
#	References DGf or LogK 04chi ; DHf 04chi ; S° n/a ; Cp 97asho/sas

 1Fe+++ + 2H2O = HFeO2 + 3H+
	-llnl_gamma	3.0
	log_k		-12.560
	-delta_H		103.764	kJ/mol	# References :04chi
	-analytic	3.22063e+02	5.03574e-02	-1.66961e+04	-1.18898e+02	5.02999e+04
#	References DGf or LogK 04chi ; DHf 04chi ; S° n/a ; Cp 97asho/sas


 0.666666666666667N2 + 0.666666666666667NO2- + 0.666666666666667H2O = HN2O2- + 0.333333333333333H+
	-llnl_gamma	4.5
	log_k		-42.676
	-delta_H		227.916	kJ/mol	# References :97asho/sas
	-analytic	-2.28584e+02	-3.91024e-02	7.08316e+02	8.25607e+01	-8.09003e+05
#	References DGf or LogK 97asho/sas ; DHf 97asho/sas ; S° 97asho/sas ; Cp 97asho/sas


 1NO2- + 1H+ = HNO2
	-llnl_gamma	3.0
	log_k		3.225
	-delta_H		-14.644	kJ/mol	# References :97asho/sas
	-analytic	6.44020e+02	1.01967e-01	-3.47712e+04	-2.33817e+02	2.13283e+06
#	References DGf or LogK 97asho/sas ; DHf 97asho/sas ; S° 97asho/sas ; Cp 97asho/sas

 1NO3- + 1H+ = HNO3
	-llnl_gamma	3.0
	log_k		-1.303
	-delta_H		16.815	kJ/mol	# References :97asho/sas
	-analytic	7.14697e+02	1.12289e-01	-4.04547e+04	-2.58904e+02	2.38671e+06
#	References DGf or LogK 97asho/sas ; DHf 97asho/sas ; S° 97asho/sas ; Cp 97asho/sas


 1H+ + 1SO4-- = HS- + 2O2
	-llnl_gamma	3.5
	log_k		-138.285
	-delta_H		868.773	kJ/mol	# References :89cox/wag
	-analytic	1.04420e+03	1.68673e-01	-1.06999e+05	-3.72414e+02	4.23267e+06
#	References DGf or LogK 89cox/wag ; DHf 89cox/wag ; S° 89cox/wag ; Cp 97asho/sas

 1S2O3-- + 1H+ = HS2O3-
	-llnl_gamma	4.0
	log_k		1.720
	-delta_H		8.254	kJ/mol	# References :n/a
	-analytic	7.63746e+02	1.22828e-01	-4.33499e+04	-2.76238e+02	2.69177e+06
#	References DGf or LogK 04chi ; DHf n/a ; S° 97asho/sas ; Cp 97asho/sas

 1S2O4-- + 1H+ = HS2O4-
	-llnl_gamma	4.5
	log_k		2.500
	-delta_H		3.818	kJ/mol	# References :n/a
	-analytic	7.67863e+02	1.23354e-01	-4.35111e+04	-2.77609e+02	2.73089e+06
#	References DGf or LogK 04chi ; DHf n/a ; S° 97asho/sas ; Cp 97asho/sas

 1H4SiO4 = HSiO3- + 1H2O + 1H+
	-llnl_gamma	4.0
	log_k		-9.820
	-delta_H		29.249	kJ/mol	# References :n/a
	-analytic	-6.46750e+02	-1.07291e-01	3.40000e+04	2.34223e+02	-2.19440e+06
#	References DGf or LogK 01fel/cho ; DHf n/a ; S° 97sve/sho ; Cp 97sve/sho


 1SO3-- + 1H+ = HSO3-
	-llnl_gamma	4.0
	log_k		7.170
	-delta_H		3.668	kJ/mol	# References :n/a
	-analytic	8.10377e+02	1.30677e-01	-4.53602e+04	-2.91738e+02	2.83198e+06
#	References DGf or LogK 04chi ; DHf n/a ; S° 04chi ; Cp 97asho/sas

 1SO4-- + 1H+ = HSO4-
	-llnl_gamma	4.0
	log_k		1.982
	-delta_H		22.440	kJ/mol	# References :04chi
	-analytic	8.16984e+02	1.29499e-01	-4.74376e+04	-2.94022e+02	2.93644e+06
#	References DGf or LogK n/a ; DHf 04chi ; S° 04chi ; Cp 97asho/sas

 0.5O2 + 1H+ + 1SO4-- = HSO5-
	-llnl_gamma	4.0
	log_k		-17.220
	-delta_H		139.777	kJ/mol	# References :97asho/sas
	-analytic	8.92767e+02	1.40423e-01	-5.78293e+04	-3.20834e+02	3.19924e+06
#	References DGf or LogK 97asho/sas ; DHf 97asho/sas ; S° 97asho/sas ; Cp 97asho/sas

 1Al+++ + 1K+ + 2H2O = KAlO2 + 4H+
	-llnl_gamma	3.0
	log_k		-24.222
	-delta_H		211.675	kJ/mol	# References :97apok/hel
	-analytic	6.48972e+02	9.81957e-02	-4.46804e+04	-2.31700e+02	1.84110e+06
#	References DGf or LogK n/a ; DHf 97apok/hel ; S° 97apok/hel ; Cp 97apok/hel


 1Cl- + 1K+ = KCl
	-llnl_gamma	3.0
	log_k		-0.500
	-delta_H		4.180	kJ/mol	# References :97mar/smi
	-analytic	7.89547e+02	1.20470e-01	-4.47224e+04	-2.85535e+02	2.71764e+06
#	References DGf or LogK 97smi/mar ; DHf 97mar/smi ; S° n/a ; Cp 97bpok/hel


 1K+ + 1H2O = KOH + 1H+
	-llnl_gamma	3.0
	log_k		-14.460
	-delta_H		66.439	kJ/mol	# References :n/a
	-analytic	1.42384e+02	1.63604e-02	-1.13130e+04	-5.17795e+01	3.86363e+05
#	References DGf or LogK 76bae/mes ; DHf n/a ; S° 97apok/hel ; Cp 97apok/hel

 1K+ + 1SO4-- = KSO4-
	-llnl_gamma	4.0
	log_k		0.880
	-delta_H		2.949	kJ/mol	# References :n/a
	-analytic	9.15254e+02	1.43488e-01	-5.12538e+04	-3.31519e+02	3.11783e+06
#	References DGf or LogK 97sve/sho ; DHf n/a ; S° 97sve/sho ; Cp 97sve/sho

 1HCO3- + 1Mg++ = Mg(HCO3)+
	-llnl_gamma	4.5
	log_k		1.038
	-delta_H		1.842	kJ/mol	# References :n/a
	-analytic	8.77196e+02	1.38125e-01	-5.03249e+04	-3.17051e+02	3.19785e+06
#	References DGf or LogK 06bla/pia ; DHf n/a ; S° 74rea/lan ; Cp 95sho/kor

 4Mg++ + 4H2O = Mg4(OH)4++++ + 4H+
	-llnl_gamma	5.5
	log_k		-39.750
	-delta_H		229.188	kJ/mol	# References :n/a
	-analytic	1.52521e+03	2.22192e-01	-9.25885e+04	-5.53196e+02	4.28299e+06
#	References DGf or LogK 76bae/mes ; DHf n/a ; S° 99yun/glu ; Cp n/a

 1Cl- + 1Mg++ = MgCl+
	-llnl_gamma	4.0
	log_k		0.350
	-delta_H		-1.728	kJ/mol	# References :n/a
	-analytic	8.36252e+02	1.34226e-01	-4.68335e+04	-3.03733e+02	2.90909e+06
#	References DGf or LogK 96bou ; DHf n/a ; S° 97sve/sho ; Cp 97sve/sho

 1HCO3- + 1Mg++ = MgCO3 + 1H+
	-llnl_gamma	3.0
	log_k		-7.347
	-delta_H		23.505	kJ/mol	# References :n/a
	-analytic	7.76983e+02	1.26514e-01	-4.07179e+04	-2.86278e+02	2.03515e+06
#	References DGf or LogK 06bla/pia ; DHf n/a ; S° 74rea/lan ; Cp 97sve/sho


 1Mg++ + 1H2O = MgOH+ + 1H+
	-llnl_gamma	4.5
	log_k		-11.680
	-delta_H		62.834	kJ/mol	# References :n/a
	-analytic	2.43555e+02	3.49076e-02	-1.77879e+04	-8.75035e+01	9.36843e+05
#	References DGf or LogK 97sve/sho ; DHf n/a ; S° 97asho/sas ; Cp 97asho/sas


 1Mg++ + 1S2O3-- = MgS2O3
	-llnl_gamma	3.0
	log_k		1.820
	-delta_H		31.170	kJ/mol	# References :n/a
	-analytic	1.82000e+00	0.00000e+00	0.00000e+00	0.00000e+00	0.00000e+00
#	References DGf or LogK 76smi/mar ; DHf n/a ; S° n/a ; Cp n/a

 1Mg++ + 1SO4-- = MgSO4
	-llnl_gamma	3.0
	log_k		2.230
	-delta_H		5.860	kJ/mol	# References :76smi/mar
	-analytic	1.69230e+03	2.66884e-01	-9.18462e+04	-6.14813e+02	5.30920e+06
#	References DGf or LogK 76smi/mar ; DHf 76smi/mar ; S° n/a ; Cp 97mcc/sho


 1.5O2 + 2NH3 = N2 + 3H2O
	-llnl_gamma	3.0
	log_k		116.439
	-delta_H		-687.055	kJ/mol	# References :89bsho/hel, 01sch/sho
	-analytic	7.05822e+01	1.09582e-03	3.02218e+04	-2.43236e+01	3.87339e+05
#	References DGf or LogK 89bsho/hel, 01sch/sho ; DHf 89bsho/hel, 01sch/sho ; S° 89bsho/hel, 01sch/sho ; Cp 89bsho/hel, 01sch/sho

 1.33333333333333NH3 + 0.333333333333333N2 + 1H+ = N2H5+
	-llnl_gamma	4.5
	log_k		-19.616
	-delta_H		104.398	kJ/mol	# References :97asho/sas
	-analytic	5.85633e+01	-2.64097e-03	-9.63803e+03	-1.92028e+01	2.17776e+05
#	References DGf or LogK 97asho/sas ; DHf 97asho/sas ; S° 97asho/sas ; Cp 97asho/sas

 1.33333333333333NH3 + 0.333333333333333N2 + 2H+ = N2H6++
	-llnl_gamma	4.5
	log_k		-20.643
	-delta_H		95.193	kJ/mol	# References :97asho/sas
	-analytic	-9.71471e+01	-2.89011e-02	-1.47842e+03	3.72434e+01	-1.84580e+05
#	References DGf or LogK 97asho/sas ; DHf 97asho/sas ; S° 97asho/sas ; Cp 97asho/sas

 0.666666666666667N2 + 0.666666666666667NO2- + 0.666666666666667H+ = N2O + 0.333333333333333H2O
	-llnl_gamma	3.0
	log_k		-7.655
	-delta_H		42.753	kJ/mol	# References :01sch/sho
	-analytic	1.78641e+02	3.80821e-02	-9.24335e+03	-6.83779e+01	2.26619e+05
#	References DGf or LogK 01sch/sho ; DHf 01sch/sho ; S° 01sch/sho ; Cp 01sch/sho

 0.666666666666667N2 + 0.666666666666667NO2- + 0.666666666666667H2O = N2O2-- + 1.33333333333333H+
	-llnl_gamma	4.5
	log_k		-53.671
	-delta_H		256.409	kJ/mol	# References :97asho/sas
	-analytic	-1.02240e+03	-1.66835e-01	4.38750e+04	3.68652e+02	-3.63523e+06
#	References DGf or LogK 97asho/sas ; DHf 97asho/sas ; S° 97asho/sas ; Cp 97asho/sas

 1Al+++ + 1Na+ + 2H2O = NaAlO2 + 4H+
	-llnl_gamma	3.0
	log_k		-23.629
	-delta_H		190.348	kJ/mol	# References :95pok/hel
	-analytic	7.04223e+02	1.11345e-01	-4.74887e+04	-2.53139e+02	2.18701e+06
#	References DGf or LogK n/a ; DHf 95pok/hel ; S° 95pok/hel ; Cp 95pok/hel

 1Cl- + 1Na+ = NaCl
	-llnl_gamma	3.0
	log_k		-0.500
	-delta_H		2.000	kJ/mol	# References :04smi/mar
	-analytic	7.60519e+02	1.20254e-01	-4.17744e+04	-2.76616e+02	2.46299e+06
#	References DGf or LogK 04smi/mar ; DHf 04smi/mar ; S° n/a ; Cp 97sve/sho

 1HCO3- + 1Na+ = NaCO3- + 1H+
	-llnl_gamma	4.5
	log_k		-9.057
	-delta_H		52.076	kJ/mol	# References :n/a
	-analytic	8.87112e+02	1.31444e-01	-5.11097e+04	-3.21239e+02	2.75112e+06
#	References DGf or LogK 90nor/plu ; DHf n/a ; S° 90nor/plu ; Cp n/a


 1HCO3- + 1Na+ = NaHCO3
	-llnl_gamma	3.0
	log_k		-0.247
	-delta_H		-11.425	kJ/mol	# References :n/a
	-analytic	7.69790e+02	1.14620e-01	-4.14361e+04	-2.79679e+02	2.38366e+06
#	References DGf or LogK 09nor/plu ; DHf n/a ; S° 82wag/eva ; Cp n/a

 1Na+ + 1H2O = NaOH + 1H+
	-llnl_gamma	3.0
	log_k		-14.750
	-delta_H		53.396	kJ/mol	# References :n/a
	-analytic	5.63344e+02	8.50749e-02	-3.41073e+04	-2.05917e+02	1.81919e+06
#	References DGf or LogK 95pok/hel ; DHf n/a ; S° 95pok/hel ; Cp 95pok/hel

 1Na+ + 1S2O3-- = NaS2O3-
	-llnl_gamma	4.5
	log_k		0.608
	-delta_H		4.656	kJ/mol	# References :82wag/eva
	-analytic	1.60478e+03	2.46830e-01	-8.86525e+04	-5.81598e+02	5.21827e+06
#	References DGf or LogK n/a ; DHf 82wag/eva ; S° 82wag/eva ; Cp n/a

 1Na+ + 1SO4-- = NaSO4-
	-llnl_gamma	4.0
	log_k		0.936
	-delta_H		-2.787	kJ/mol	# References :n/a
	-analytic	9.35875e+02	1.44386e-01	-5.30229e+04	-3.38398e+02	3.30639e+06
#	References DGf or LogK 95pok/sch ; DHf n/a ; S° 95pok/sch ; Cp 95pok/sch

 1NH3 + 1H+ = NH4+
	-llnl_gamma	2.5
	log_k		9.241
	-delta_H		-51.923	kJ/mol	# References :97asho/sas
	-analytic	3.74946e+01	-1.54524e-03	-6.95604e+02	-1.14964e+01	2.65551e+05
#	References DGf or LogK 97asho/sas ; DHf 97asho/sas ; S° 97asho/sas ; Cp 97asho/sas
 0.166666666666667N2 + 0.666666666666667NO2- + 0.666666666666667H+ = NO + 0.333333333333333H2O
	-llnl_gamma	3.0
	log_k		-7.261
	-delta_H		54.647	kJ/mol	# References :01sch/sho
	-analytic	5.42715e+02	8.82677e-02	-3.44772e+04	-1.95732e+02	2.10425e+06
#	References DGf or LogK 01sch/sho ; DHf 01sch/sho ; S° 01sch/sho ; Cp 01sch/sho

 1.5O2 + 1NH3 = NO2- + 1H+ + 1H2O
	-llnl_gamma	3.0
	log_k		46.858
	-delta_H		-290.893	kJ/mol	# References :97asho/sas
	-analytic	-7.80342e+02	-1.31251e-01	6.03156e+04	2.82084e+02	-3.01919e+06
#	References DGf or LogK 97asho/sas ; DHf 97asho/sas ; S° 97asho/sas ; Cp 97asho/sas

 2O2 + 1NH3 = NO3- + 1H+ + 1H2O
	-llnl_gamma	3.0
	log_k		62.093
	-delta_H		-387.037	kJ/mol	# References :97asho/sas
	-analytic	-8.29821e+02	-1.39902e-01	6.88016e+04	2.99153e+02	-3.32174e+06
#	References DGf or LogK 97asho/sas ; DHf 97asho/sas ; S° 97asho/sas ; Cp 97asho/sas

 1H2O = OH- + 1H+
	-llnl_gamma	3.5
	log_k		-14.001
	-delta_H		55.815	kJ/mol	# References :89cox/wag
	-analytic	-7.01965e+02	-1.12741e-01	3.61687e+04	2.53604e+02	-2.42330e+06
#	References DGf or LogK n/a ; DHf 89cox/wag ; S° 89cox/wag ; Cp 97asho/sas

 1HS- = S-- + 1H+
	-llnl_gamma	4.5
	log_k		-17.100
	-delta_H		73.278	kJ/mol	# References :n/a
	-analytic	7.59909e+02	1.03325e-01	-4.46242e+04	-2.75650e+02	2.12751e+06
#	References DGf or LogK 04chi ; DHf n/a ; S° 04chi ; Cp 74nau/ryz

 1.5HS- + 0.25S2O3-- = S2-- + 0.75H2O
	-llnl_gamma	4.0
	log_k		-3.333
	-delta_H		8.189	kJ/mol	# References :04chi
	-analytic	-6.74935e+01	-8.30497e-03	3.58412e+03	2.32529e+01	-2.59679e+05
#	References DGf or LogK n/a ; DHf 04chi ; S° 04chi ; Cp 88sho/hel

 2H+ + 2SO4-- = S2O3-- + 2O2 + 1H2O
	-llnl_gamma	4.0
	log_k		-133.412
	-delta_H		856.297	kJ/mol	# References :04chi
	-analytic	1.73328e+03	2.79220e-01	-1.44725e+05	-6.21877e+02	6.60133e+06
#	References DGf or LogK 06bla/pia ; DHf 04chi ; S° 97asho/sas ; Cp 97asho/sas
