SOLUTION_MASTER_SPECIES
                 Na   Na+    0.00000        Na  22.98980
                C   CO3-2    2.00000      HCO3  12.01110
                  Tr   Tr    0.00000        Tr   1.00800
                Ca   Ca++    0.00000        Ca  40.08000
                 Cl   Cl-    0.00000        Cl  35.45300
SOLUTION_SPECIES
          Na+ + CO3-2 + H+  = NaHCO3
                    log_k   1.0079000000e+01
          CO3-2  = CO3-2
                    log_k   0.0000000000e+00
          CO3-2 + 2H+ -1H2O  = CO2
                    log_k   1.6680700000e+01
          Na+ + CO3--  = NaCO3-
                    log_k   1.2700000000e+00
          Na+ + H2O -1H+  = NaOH
                    log_k   -1.4180000000e+01
          Cl-  = Cl-
                    log_k   0.0000000000e+00
          CO3-2 + H+  = HCO3-
                    log_k   1.0328900000e+01
          Na+  = Na+
                    log_k   0.0000000000e+00
          Ca++  = Ca++
                    log_k   0.0000000000e+00
          Ca++ + CO3-- + H+  = CaHCO3+
                    log_k   1.1434700000e+01
          Ca++ + CO3--  = CaCO3
                    log_k   3.2252800000e+00
          CO3-2  = CO3-2
                    log_k   0.0000000000e+00
          Tr  = Tr
                    log_k   0.0000000000e+00
          Ca++ + H2O -1H+  = CaOH+
                    log_k   -1.2780000000e+01
PHASES
      Fix_H+
          H+ = H+ 
                    log_k   0.0000000000e+00
      H2(g)
          H2 = H2 
                    log_k   -3.1500000000e+00
      O2(g)
          O2 = O2 
                    log_k   -2.9600000000e+00
      H2O(g)
          H2O = H2O 
                    log_k   1.5100000000e+00
      Aragonite
          CaCO3 = Ca+2 + CO3-2 
                    log_k   -8.3360600000e+00
      CO2(g)
          CO2 =  -1H2O + CO3-- + 2H+ 
                    log_k   -1.8148700000e+01
      Halite
          NaCl = Na+ + Cl- 
                    log_k   1.5820000000e+00
      Portlandite
          Ca(OH)2 = Ca+2 + 2OH- 
                    log_k   -5.4448000000e+00
      Calcite
          CaCO3 = Ca+2 + CO3-2 
                    log_k   -8.4798300000e+00

SOLUTION                  41-41 clay
   temp 2.5000000000e+01
   pH    7.5000000000e+00 
   pe    4.0000000000e+00
   units mol/l
                       Ca    2.7000000000e-03
                       Cl    1.0000000000e-02
                        C    4.5000000000e-03
                       Na    8.0000000000e-03
                       Tr    1.0000000000e-02

EQUILIBRIUM_PHASES        41-41 clay
                  Calcite    0.00000e+00  2.89540e-03
              Portlandite    0.00000e+00  0.00000e+00
                Aragonite    0.00000e+00  0.00000e+00
                   Halite    0.00000e+00  0.00000e+00
                   CO2(g)    -2.54000e+00  1.00000e+00
                   H2O(g)    -1.40000e+00  1.00000e+00
                   Fix_H+    -7.50000e+00  HCl	7.50000e+00

SOLUTION                  1-37 concrete
   temp 2.5000000000e+01
   pH    1.2500000000e+01 
   pe    4.0000000000e+00
   units mol/l
                       Cl    4.0000000000e-02
                        C    1.0000000000e-10
                       Na    8.0000000000e-03
                       Ca    2.0000000000e-02
                     O(0)    0.0000000000e+00

EQUILIBRIUM_PHASES        1-37 concrete
              Portlandite    0.00000e+00  9.76700e-03
                  Calcite    0.00000e+00  0.00000e+00
                   Halite    0.00000e+00  0.00000e+00
                Aragonite    0.00000e+00  0.00000e+00

SOLUTION                  38-40 concrete
   temp 2.5000000000e+01
   pH    1.2500000000e+01 
   pe    4.0000000000e+00
   units mol/l
                       Cl    4.0000000000e-02
                        C    1.0000000000e-10
                       Na    8.0000000000e-03
                       Ca    2.0000000000e-02
                     O(0)    0.0000000000e+00

EQUILIBRIUM_PHASES        38-40 concrete
              Portlandite    0.00000e+00  9.76700e-03
                  Calcite    0.00000e+00  0.00000e+00
                   Halite    0.00000e+00  0.00000e+00
                Aragonite    0.00000e+00  0.00000e+00
SELECTED_OUTPUT
  -high_precision true
KNOBS
  -iterations 500
  -diag true 
  -tolerance 1.e-15
SOLUTION 0
PRINT
  -reset	true
# thereafter the -cells parameter is the 
# only relevant parameter 
TRANSPORT
  -cells          41
  -time_step          100.
  -shifts          5
  -lengths        0.1
  -flow_direction diff
  -boundary_conditions        closed closed
  -print_frequency      1
  -warnings False
END
