
SOLUTION_MASTER_SPECIES

               Al   Al+++    0.00000         Al   26.98154
                C   HCO3-    1.00000          C   12.01070
             C(4)   HCO3-    1.00000          C   12.01070
              C(-4)   CH4    0.00000          C   12.01070
                C(2)   CO    0.00000          C   12.01070
                Ca   Ca++    0.00000         Ca   40.07800
                 Cl   Cl-    0.00000         Cl   35.45300
             Cl(-1)   Cl-    0.00000         Cl   35.45300
             Cl(1)   ClO-    0.00000         Cl   35.45300
            Cl(3)   ClO2-    0.00000         Cl   35.45300
            Cl(+4)   ClO2    0.00000         Cl   35.45300
           Cl(+5)   ClO3-    0.00000         Cl   35.45300
           Cl(+7)   ClO4-    0.00000         Cl   35.45300
                Fe   Fe++    0.00000         Fe   55.84500
            Fe(+2)   Fe++   -2.00000         Fe   55.84500
           Fe(+3)   Fe+++   -2.00000         Fe   55.84500
                   K   K+    0.00000          K   39.09830
                Mg   Mg++    0.00000         Mg   24.30500
                  N   NH3    1.00000          N   14.00670
              N(-3)   NH3    1.00000          N   14.00670
                N(0)   N2    0.00000          N   14.00670
              N(-5)   CN-    0.00000          N   14.00670
             N(+3)   NO2-    0.00000          N   14.00670
             N(+5)   NO3-    0.00000          N   14.00670
                 Na   Na+    0.00000         Na   22.98977
                S   SO4--    0.00000          S   32.06400
              S(-2)   HS-    0.00000          S   32.06400
             S(6)   SO4--    0.00000          S   32.06400
             S(4)   SO3--    0.00000          S   32.06400
             S(8)   HSO5-    0.00000          S   32.06400
            S(2)   S2O3--    0.00000          S   32.06400
            S(7)   S2O8--    0.00000          S   32.06400
            S(3)   S2O3--    0.00000          S   32.06400
            S(5)   S2O6--    0.00000          S   32.06400
              Si   H4SiO4    0.00000       SiO2   28.08550
                Sr   Sr++    0.00000         Sr   32.06400

SOLUTION_SPECIES

           + 1.0Al+++ = Al+++
                    -llnl_gamma    9.0000000000e+00 # Davies
                    log_k   0.0000000000e+00
#
           + 1.0Ca++ = Ca++
                    -llnl_gamma    6.0000000000e+00 # Davies
                    log_k   0.0000000000e+00
#
           + 1.0Cl- = Cl-
                    -llnl_gamma    3.0000000000e+00 # Davies
                    log_k   0.0000000000e+00
#
           + 1.0Fe++ = Fe++
                    -llnl_gamma    6.0000000000e+00 # Davies
                    log_k   0.0000000000e+00
#
           + 1.0H4SiO4 = H4SiO4
                    -llnl_gamma    3.0000000000e+00 # Davies
                    log_k   0.0000000000e+00
#
           + 1.0HCO3- = HCO3-
                    -llnl_gamma    4.0000000000e+00 # Davies
                    log_k   0.0000000000e+00
#
           + 1.0K+ = K+
                    -llnl_gamma    3.0000000000e+00 # Davies
                    log_k   0.0000000000e+00
#
           + 1.0Mg++ = Mg++
                    -llnl_gamma    8.0000000000e+00 # Davies
                    log_k   0.0000000000e+00
#
           + 1.0Na+ = Na+
                    -llnl_gamma    4.0000000000e+00 # Davies
                    log_k   0.0000000000e+00
#
           + 1.0NH3 = NH3
                    -llnl_gamma    3.0000000000e+00 # Davies
                    log_k   0.0000000000e+00
#
           + 1.0SO4-- = SO4--
                    -llnl_gamma    4.0000000000e+00 # Davies
                    log_k   0.0000000000e+00
#
           + 1.0Sr++ = Sr++
                    -llnl_gamma    5.0000000000e+00 # Davies
                    log_k   0.0000000000e+00
#
           + 4.0H4SiO4 - 4.0H2O - 4.0H+ = (SiO2)4(OH)4----
                    -llnl_gamma    4.0000000000e+00 # Davies
                    log_k   -3.9200000000e+01
                    -analytical_expression  -3.920000000e+01 0.000000000e+00 0.000000000e+00 0.000000000e+00 0.000000000e+00
#
           + 1.0Al+++ + 2.0H2O - 2.0H+ = Al(OH)2+
                    -llnl_gamma    4.0000000000e+00 # Davies
                    log_k   -1.0584000000e+01
                    -analytical_expression  3.001600000e+02 5.415260000e-02 -2.074340000e+04 -1.083280000e+02 9.540110000e+05
#
           + 1.0Al+++ + 1.0H4SiO4 - 1.0H+ = AlH3SiO4++
                    -llnl_gamma    4.5000000000e+00 # Davies
                    log_k   -2.3800000000e+00
                    -analytical_expression  -3.753130000e+02 -2.923720000e-02 2.729550000e+04 1.289530000e+02 -2.576620000e+06
#
           + 1.0Al+++ + 2.0H2O - 4.0H+ = AlO2-
                    -llnl_gamma    4.0000000000e+00 # Davies
                    log_k   -2.2873000000e+01
                    -analytical_expression  -1.780650000e+02 -2.689220000e-02 1.867240000e+03 6.683850000e+01 -7.505000000e+05
#
           + 1.0Al+++ + 1.0H2O - 1.0H+ = AlOH++
                    -llnl_gamma    4.5000000000e+00 # Davies
                    log_k   -4.9500000000e+00
                    -analytical_expression  1.614560000e+02 3.018510000e-02 -1.150560000e+04 -5.805460000e+01 6.076670000e+05
#
           + 1.0Al+++ + 1.0SO4-- = AlSO4+
                    -llnl_gamma    4.5000000000e+00 # Davies
                    log_k   3.1700000000e+00
                    -analytical_expression  2.319310000e+03 3.614310000e-01 -1.349350000e+05 -8.358580000e+02 8.618870000e+06
#
           + 1.0HCO3- + 1.0Ca++ = Ca(HCO3)+
                    -llnl_gamma    4.5000000000e+00 # Davies
                    log_k   1.1030000000e+00
                    -analytical_expression  8.686090000e+02 1.458340000e-01 -4.828140000e+04 -3.167330000e+02 3.083240000e+06
#
           + 1.0Ca++ + 1.0Cl- = CaCl+
                    -llnl_gamma    4.0000000000e+00 # Davies
                    log_k   -2.9000000000e-01
                    -analytical_expression  7.843040000e+02 1.298110000e-01 -4.349260000e+04 -2.857250000e+02 2.630010000e+06
#
           + 1.0Ca++ + 2.0Cl- = CaCl2
                    -llnl_gamma    3.0000000000e+00 # Davies
                    log_k   -6.4000000000e-01
                    -analytical_expression  1.562120000e+03 2.557960000e-01 -8.580120000e+04 -5.698190000e+02 5.221190000e+06
#
           + 1.0HCO3- + 1.0Ca++ - 1.0H+ = CaCO3
                    -llnl_gamma    3.0000000000e+00 # Davies
                    log_k   -7.1070000000e+00
                    -analytical_expression  6.954330000e+02 1.163300000e-01 -3.615250000e+04 -2.568440000e+02 1.740270000e+06
#
           + 1.0Ca++ + 1.0H2O - 1.0H+ = CaOH+
                    -llnl_gamma    4.0000000000e+00 # Davies
                    log_k   -1.2780000000e+01
                    -analytical_expression  1.312960000e+02 2.141820000e-02 -1.018970000e+04 -4.822430000e+01 2.703210000e+05
#
           + 1.0Ca++ + 1.0SO4-- = CaSO4
                    -llnl_gamma    3.0000000000e+00 # Davies
                    log_k   2.3100000000e+00
                    -analytical_expression  1.720340000e+03 2.657350000e-01 -9.425540000e+04 -6.235640000e+02 5.497300000e+06
#
           + 1.0HCO3- + 1.0H+ + 1.0H2O - 2.0O2 = CH4
                    -llnl_gamma    3.0000000000e+00 # Davies
                    log_k   -1.4411600000e+02
                    -analytical_expression  1.129980000e+03 1.823100000e-01 -1.124120000e+05 -4.055130000e+02 4.621490000e+06
#
           + 1.0Cl- + 1.0ClO- + 2.0H+ - 1.0H2O = Cl2
                    -llnl_gamma    3.0000000000e+00 # Davies
                    log_k   1.0874000000e+01
                    -analytical_expression  1.257140000e+03 2.113340000e-01 -6.623740000e+04 -4.579610000e+02 4.096350000e+06
#
           + 0.5O2 + 1.0Cl- = ClO-
                    -llnl_gamma    4.0000000000e+00 # Davies
                    log_k   -1.5089000000e+01
                    -analytical_expression  -1.271820000e+02 -1.754880000e-02 4.917430000e+03 4.363290000e+01 -6.341480000e+05
#
           + 1.0O2 + 1.0Cl- = ClO2-
                    -llnl_gamma    4.0000000000e+00 # Davies
                    log_k   -2.3095000000e+01
                    -analytical_expression  -1.618080000e+02 -2.410550000e-02 5.185490000e+03 5.598160000e+01 -8.902230000e+05
#
           + 1.25O2 + 1.0Cl- + 1.0H+ - 0.5H2O = ClO2
                    -llnl_gamma    3.0000000000e+00 # Davies
                    log_k   -1.9630000000e+01
                    -analytical_expression  1.720490000e+02 4.243070000e-02 -9.643110000e+03 -6.852140000e+01 -2.163130000e+05
#
           + 1.5O2 + 1.0Cl- = ClO3-
                    -llnl_gamma    3.5000000000e+00 # Davies
                    log_k   -1.7248000000e+01
                    -analytical_expression  -1.735430000e+02 -2.718800000e-02 8.414890000e+03 5.999380000e+01 -1.090940000e+06
#
           + 2.0O2 + 1.0Cl- = ClO4-
                    -llnl_gamma    3.5000000000e+00 # Davies
                    log_k   -1.5809000000e+01
                    -analytical_expression  -2.646700000e+02 -4.030500000e-02 1.544600000e+04 9.160060000e+01 -1.563350000e+06
#
           + 1.0HCO3- + 1.0NH3 - 0.5O2 - 2.0H2O = CN-
                    -llnl_gamma    3.0000000000e+00 # Davies
                    log_k   -5.6048000000e+01
                    -analytical_expression  1.185270000e+02 1.725690000e-02 -2.632400000e+04 -4.012050000e+01 6.976190000e+05
#
           + 1.0CH4 + 1.0NO3- + 1.0HS- + 1.0H+ - 3.0H2O = SCN-
                    -llnl_gamma    3.5000000000e+00 # Davies
                    log_k   8.5071000000e+01
                    -analytical_expression  3.287100000e+02 6.049590000e-02 7.961690000e+03 -1.208180000e+02 9.405090000e+05
#
           + 1.0HCO3- + 1.0Na+ = NaHCO3
                    -llnl_gamma    3.0000000000e+00 # Davies
                    log_k   -2.4700000000e-01
                    -analytical_expression  7.697900000e+02 1.146200000e-01 -4.143610000e+04 -2.796790000e+02 2.383660000e+06
#
           + 1.0K+ + 1.0H2O - 1.0H+ = KOH
                    -llnl_gamma    3.0000000000e+00 # Davies
                    log_k   -1.4460000000e+01
                    -analytical_expression  1.423840000e+02 1.636040000e-02 -1.131300000e+04 -5.177950000e+01 3.863630000e+05
#
           + 1.0HCO3- + 1.0Fe++ - 1.0H+ = FeCO3
                    -llnl_gamma    3.0000000000e+00 # Davies
                    log_k   -4.6370000000e+00
                    -analytical_expression  9.470360000e+02 1.481620000e-01 -5.173530000e+04 -3.456540000e+02 2.930910000e+06
#
           + 1.0S2O4-- + 2.0H+ = H2S2O4
                    -llnl_gamma    3.0000000000e+00 # Davies
                    log_k   2.8000000000e+00
                    -analytical_expression  1.523820000e+03 2.418790000e-01 -8.550410000e+04 -5.513360000e+02 5.146550000e+06
#
           + 1.0H+ + 1.0SO4-- - 2.0O2 = HS-
                    -llnl_gamma    3.5000000000e+00 # Davies
                    log_k   -1.3828500000e+02
                    -analytical_expression  1.044200000e+03 1.686730000e-01 -1.069990000e+05 -3.724140000e+02 4.232670000e+06
#
           + 1.0SO4-- + 1.0H+ = HSO4-
                    -llnl_gamma    4.0000000000e+00 # Davies
                    log_k   1.9820000000e+00
                    -analytical_expression  8.169840000e+02 1.294990000e-01 -4.743760000e+04 -2.940220000e+02 2.936440000e+06
#
           + 0.5O2 + 1.0H+ + 1.0SO4-- = HSO5-
                    -llnl_gamma    4.0000000000e+00 # Davies
                    log_k   -1.7220000000e+01
                    -analytical_expression  8.927670000e+02 1.404230000e-01 -5.782930000e+04 -3.208340000e+02 3.199240000e+06
#
           + 1.0Na+ + 1.0SO4-- = NaSO4-
                    -llnl_gamma    4.0000000000e+00 # Davies
                    log_k   9.3600000000e-01
                    -analytical_expression  9.358750000e+02 1.443860000e-01 -5.302290000e+04 -3.383980000e+02 3.306390000e+06
#
           + 1.0Al+++ + 1.0K+ + 2.0H2O - 4.0H+ = KAlO2
                    -llnl_gamma    3.0000000000e+00 # Davies
                    log_k   -2.4222000000e+01
                    -analytical_expression  6.489720000e+02 9.819570000e-02 -4.468040000e+04 -2.317000000e+02 1.841100000e+06
#
           + 1.0HCO3- + 1.0Fe+++ - 1.0H+ = FeCO3+
                    -llnl_gamma    4.5000000000e+00 # Davies
                    log_k   -6.0700000000e-01
                    -analytical_expression  -6.067000000e-01 0.000000000e+00 0.000000000e+00 0.000000000e+00 0.000000000e+00
#
           + 2.5S2O3-- + 3.0H+ - 1.5H2O = S5O6--
                    -llnl_gamma    4.0000000000e+00 # Davies
                    log_k   8.7200000000e-01
                    -analytical_expression  2.068950000e+03 3.325880000e-01 -1.161080000e+05 -7.503870000e+02 7.020040000e+06
#
           + 3.0H4SiO4 - 3.0H2O - 3.0H+ = Si3O6(OH)3---
                    -llnl_gamma    3.5000000000e+00 # Davies
                    log_k   -2.9400000000e+01
                    -analytical_expression  -2.940000000e+01 0.000000000e+00 0.000000000e+00 0.000000000e+00 0.000000000e+00
#
           + 2.0O2 + 1.0NH3 - 1.0H+ - 1.0H2O = NO3-
                    -llnl_gamma    3.0000000000e+00 # Davies
                    log_k   6.2093000000e+01
                    -analytical_expression  -8.298210000e+02 -1.399020000e-01 6.880160000e+04 2.991530000e+02 -3.321740000e+06
#
           + 1.0Fe+++ + 2.0H2O - 3.0H+ = HFeO2
                    -llnl_gamma    4.5000000000e+00 # Davies
                    log_k   -3.1800000000e+01
                    -analytical_expression  -1.765100000e+02 -3.475580000e-02 4.908530000e+02 6.371650000e+01 -3.767960000e+05
#
           + 2.0H+ + 2.0SO4-- - 1.5O2 - 1.0H2O = S2O4--
                    -llnl_gamma    5.0000000000e+00 # Davies
                    log_k   -1.1828100000e+02
                    -analytical_expression  1.689470000e+03 2.712030000e-01 -1.366220000e+05 -6.067910000e+02 6.319060000e+06
#
           + 1.0HCO3- + 1.0Na+ - 1.0H+ = NaCO3-
                    -llnl_gamma    4.5000000000e+00 # Davies
                    log_k   -9.0570000000e+00
                    -analytical_expression  8.871120000e+02 1.314440000e-01 -5.110970000e+04 -3.212390000e+02 2.751120000e+06
#
           + 1.0Mg++ + 1.0H2O - 1.0H+ = MgOH+
                    -llnl_gamma    4.5000000000e+00 # Davies
                    log_k   -1.1680000000e+01
                    -analytical_expression  2.435550000e+02 3.490760000e-02 -1.778790000e+04 -8.750350000e+01 9.368430000e+05
#
           + 1.0Na+ + 1.0H2O - 1.0H+ = NaOH
                    -llnl_gamma    3.0000000000e+00 # Davies
                    log_k   -1.4750000000e+01
                    -analytical_expression  5.633440000e+02 8.507490000e-02 -3.410730000e+04 -2.059170000e+02 1.819190000e+06
#
           + 1.0Mg++ + 1.0SO4-- = MgSO4
                    -llnl_gamma    3.0000000000e+00 # Davies
                    log_k   2.2300000000e+00
                    -analytical_expression  1.692300000e+03 2.668840000e-01 -9.184620000e+04 -6.148130000e+02 5.309200000e+06
#
           + 1.0HCO3- + 1.0Mg++ - 1.0H+ = MgCO3
                    -llnl_gamma    3.0000000000e+00 # Davies
                    log_k   -7.3470000000e+00
                    -analytical_expression  7.769830000e+02 1.265140000e-01 -4.071790000e+04 -2.862780000e+02 2.035150000e+06
#
           + 0.166666666667N2 + 0.666666666667NO2- + 0.666666666667H+ - 0.333333333333H2O = NO
                    -llnl_gamma    3.0000000000e+00 # Davies
                    log_k   -7.2610000000e+00
                    -analytical_expression  5.427150000e+02 8.826770000e-02 -3.447720000e+04 -1.957320000e+02 2.104250000e+06
#
           + 1.0SO4-- - 0.5O2 = SO3--
                    -llnl_gamma    4.5000000000e+00 # Davies
                    log_k   -4.6614000000e+01
                    -analytical_expression  9.671920000e+01 1.416080000e-02 -2.079470000e+04 -3.379310000e+01 5.163230000e+05
#
           + 1.0HCO3- + 1.0Mg++ = Mg(HCO3)+
                    -llnl_gamma    4.5000000000e+00 # Davies
                    log_k   1.0380000000e+00
                    -analytical_expression  8.771960000e+02 1.381250000e-01 -5.032490000e+04 -3.170510000e+02 3.197850000e+06
#
           + 1.33333333333NH3 + 0.333333333333N2 + 2.0H+ = N2H6++
                    -llnl_gamma    4.5000000000e+00 # Davies
                    log_k   -2.0643000000e+01
                    -analytical_expression  -9.714710000e+01 -2.890110000e-02 -1.478420000e+03 3.724340000e+01 -1.845800000e+05
#
           + 1.33333333333NH3 + 0.333333333333N2 + 1.0H+ = N2H5+
                    -llnl_gamma    4.5000000000e+00 # Davies
                    log_k   -1.9616000000e+01
                    -analytical_expression  5.856330000e+01 -2.640970000e-03 -9.638030000e+03 -1.920280000e+01 2.177760000e+05
#
           + 1.0Al+++ + 1.0Na+ + 2.0H2O - 4.0H+ = NaAlO2
                    -llnl_gamma    3.0000000000e+00 # Davies
                    log_k   -2.3629000000e+01
                    -analytical_expression  7.042230000e+02 1.113450000e-01 -4.748870000e+04 -2.531390000e+02 2.187010000e+06
#
           + 0.5O2 + 2.0H+ + 2.0SO4-- - 1.0H2O = S2O8--
                    -llnl_gamma    4.0000000000e+00 # Davies
                    log_k   -2.2381000000e+01
                    -analytical_expression  1.527540000e+03 2.406040000e-01 -9.487810000e+04 -5.503680000e+02 5.193000000e+06
#
           + 2.0H+ + 2.0SO4-- - 0.5O2 - 1.0H2O = S2O6--
                    -llnl_gamma    4.0000000000e+00 # Davies
                    log_k   -5.0823000000e+01
                    -analytical_expression  1.560830000e+03 2.483230000e-01 -1.065290000e+05 -5.621410000e+02 5.564270000e+06
#
           + 1.0S2O3-- + 1.0S2O4-- + 2.0H+ - 1.0H2O = S4O6--
                    -llnl_gamma    4.0000000000e+00 # Davies
                    log_k   2.7056000000e+01
                    -analytical_expression  1.488160000e+03 2.389200000e-01 -7.699030000e+04 -5.379460000e+02 5.066840000e+06
#
           + 1.0HCO3- - 1.0H+ = CO3--
                    -llnl_gamma    4.5000000000e+00 # Davies
                    log_k   -1.0327000000e+01
                    -analytical_expression  -7.705840000e+02 -1.243350000e-01 4.203880000e+04 2.773950000e+02 -2.672740000e+06
#
           + 1.0SO3-- + 1.0H+ = HSO3-
                    -llnl_gamma    4.0000000000e+00 # Davies
                    log_k   7.1700000000e+00
                    -analytical_expression  8.103770000e+02 1.306770000e-01 -4.536020000e+04 -2.917380000e+02 2.831980000e+06
#
           + 1.0HCO3- + 1.0H+ - 0.5O2 - 1.0H2O = CO
                    -llnl_gamma    3.0000000000e+00 # Davies
                    log_k   -4.1718000000e+01
                    -analytical_expression  8.535480000e+02 1.393340000e-01 -6.462700000e+04 -3.064810000e+02 3.406500000e+06
#
           + 1.0Cl- + 1.0K+ = KCl
                    -llnl_gamma    3.0000000000e+00 # Davies
                    log_k   -5.0000000000e-01
                    -analytical_expression  7.895470000e+02 1.204700000e-01 -4.472240000e+04 -2.855350000e+02 2.717640000e+06
#
           + 4.0Mg++ + 4.0H2O - 4.0H+ = Mg4(OH)4++++
                    -llnl_gamma    5.5000000000e+00 # Davies
                    log_k   -3.9750000000e+01
                    -analytical_expression  1.525210000e+03 2.221920000e-01 -9.258850000e+04 -5.531960000e+02 4.282990000e+06
#
           + 1.0NH3 + 1.0H+ = NH4+
                    -llnl_gamma    2.5000000000e+00 # Davies
                    log_k   9.2410000000e+00
                    -analytical_expression  3.749460000e+01 -1.545240000e-03 -6.956040000e+02 -1.149640000e+01 2.655510000e+05
#
           + 1.0HS- + 1.0H+ = H2S
                    -llnl_gamma    3.0000000000e+00 # Davies
                    log_k   6.9890000000e+00
                    -analytical_expression  7.484060000e+02 1.198180000e-01 -4.134700000e+04 -2.703230000e+02 2.705450000e+06
#
           + 1.5O2 + 1.0Cl- = ClO3-
                    -llnl_gamma    3.5000000000e+00 # Davies
                    log_k   -1.7248000000e+01
                    -analytical_expression  -1.735430000e+02 -2.718800000e-02 8.414890000e+03 5.999380000e+01 -1.090940000e+06
#
           + 1.5O2 + 2.0NH3 - 3.0H2O = N2
                    -llnl_gamma    3.0000000000e+00 # Davies
                    log_k   1.1643900000e+02
                    -analytical_expression  7.058220000e+01 1.095820000e-03 3.022180000e+04 -2.432360000e+01 3.873390000e+05
#
           + 1.0ClO2- + 1.0H+ = HClO2
                    -llnl_gamma    3.0000000000e+00 # Davies
                    log_k   1.9790000000e+00
                    -analytical_expression  7.882350000e+02 1.243340000e-01 -4.459180000e+04 -2.845030000e+02 2.686410000e+06
#
           + 1.0HCO3- + 1.0H+ - 1.0H2O = CO2
                     -co2_llnl_gamma
                    log_k   6.3530000000e+00
                    -analytical_expression  6.821720000e+02 1.143220000e-01 -3.816580000e+04 -2.465900000e+02 2.513680000e+06
#
           + 1.0Na+ + 1.0S2O3-- = NaS2O3-
                    -llnl_gamma    4.5000000000e+00 # Davies
                    log_k   6.0800000000e-01
                    -analytical_expression  1.604780000e+03 2.468300000e-01 -8.865250000e+04 -5.815980000e+02 5.218270000e+06
#
           + 3.0HS- + 1.0S2O3-- + 3.0H+ - 3.0H2O = S5--
                    -llnl_gamma    4.0000000000e+00 # Davies
                    log_k   2.7950000000e+01
                    -analytical_expression  1.964010000e+03 3.208460000e-01 -1.016250000e+05 -7.136560000e+02 6.669390000e+06
#
           + 1.0S2O3-- + 2.0H+ = H2S2O3
                    -llnl_gamma    3.0000000000e+00 # Davies
                    log_k   2.3200000000e+00
                    -analytical_expression  1.497850000e+03 2.381430000e-01 -8.404890000e+04 -5.420660000e+02 5.037960000e+06
#
           + 1.0Cl- + 1.0Mg++ = MgCl+
                    -llnl_gamma    4.0000000000e+00 # Davies
                    log_k   3.5000000000e-01
                    -analytical_expression  8.362520000e+02 1.342260000e-01 -4.683350000e+04 -3.037330000e+02 2.909090000e+06
#
           + 1.0ClO- + 1.0H+ = HClO
                    -llnl_gamma    3.0000000000e+00 # Davies
                    log_k   7.5500000000e+00
                    -analytical_expression  7.252180000e+02 1.147640000e-01 -3.912130000e+04 -2.617480000e+02 2.400810000e+06
#
           + 1.0SO3-- + 2.0H+ = H2SO3
                    -llnl_gamma    3.0000000000e+00 # Davies
                    log_k   9.0300000000e+00
                    -analytical_expression  1.294760000e+03 2.181640000e-01 -7.302980000e+04 -4.677180000e+02 4.578040000e+06
#
           + 2.5HS- + 0.75S2O3-- + 2.0H+ - 2.25H2O = S4--
                    -llnl_gamma    4.0000000000e+00 # Davies
                    log_k   1.8037000000e+01
                    -analytical_expression  1.285200000e+03 2.108630000e-01 -6.632270000e+04 -4.674120000e+02 4.355760000e+06
#
           + 1.0Cl- + 1.0H+ = HCl
                    -llnl_gamma    3.0000000000e+00 # Davies
                    log_k   -7.1000000000e-01
                    -analytical_expression  4.768050000e+02 9.081320000e-02 -2.545710000e+04 -1.770240000e+02 1.673510000e+06
#
           + 1.0K+ + 1.0SO4-- = KSO4-
                    -llnl_gamma    4.0000000000e+00 # Davies
                    log_k   8.8000000000e-01
                    -analytical_expression  9.152540000e+02 1.434880000e-01 -5.125380000e+04 -3.315190000e+02 3.117830000e+06
#
           + 0.25O2 + 1.0Fe++ + 1.0H+ - 0.5H2O = Fe+++
                    -llnl_gamma    9.0000000000e+00 # Davies
                    log_k   8.4920000000e+00
                    -analytical_expression  -2.123730000e+02 -3.530110000e-02 1.605990000e+04 7.470000000e+01 -6.502450000e+05
#
           + 2.0H+ + 2.0SO4-- - 2.0O2 - 1.0H2O = S2O3--
                    -llnl_gamma    4.0000000000e+00 # Davies
                    log_k   -1.3341200000e+02
                    -analytical_expression  1.733280000e+03 2.792200000e-01 -1.447250000e+05 -6.218770000e+02 6.601330000e+06
#
           + 1.0Cl- + 1.0Na+ = NaCl
                    -llnl_gamma    3.0000000000e+00 # Davies
                    log_k   -5.0000000000e-01
                    -analytical_expression  7.605190000e+02 1.202540000e-01 -4.177440000e+04 -2.766160000e+02 2.462990000e+06
#
           + 1.5O2 + 1.0NH3 - 1.0H+ - 1.0H2O = NO2-
                    -llnl_gamma    3.0000000000e+00 # Davies
                    log_k   4.6858000000e+01
                    -analytical_expression  -7.803420000e+02 -1.312510000e-01 6.031560000e+04 2.820840000e+02 -3.019190000e+06
#
           + 1.0Mg++ + 1.0S2O3-- = MgS2O3
                    -llnl_gamma    3.0000000000e+00 # Davies
                    log_k   1.8200000000e+00
                    -analytical_expression  1.820000000e+00 0.000000000e+00 0.000000000e+00 0.000000000e+00 0.000000000e+00
#

PHASES

      Quartz_alpha
          SiO2 =  - 2.0H2O + 1.0H4SiO4
                    log_k   -3.7380000000e+00
                    -analytical_expression  1.458440000e+01 2.483820000e-03 -1.884330000e+03 -5.357430000e+00 4.550190000e+04
      Illite_Mg
          K0.85Mg0.25Al2.35Si3.4O10(OH)2 =  - 8.4H+ - 1.6H2O + 2.35Al+++ + 0.85K+ + 0.25Mg++ + 3.4H4SiO4
                    log_k   1.0844000000e+01
                    -analytical_expression  -1.129700000e+03 -1.927450000e-01 7.044020000e+04 4.045930000e+02 -3.501160000e+06
      Pyrite
          FeS2 =  - 3.5O2 - 1.0H2O + 1.0Fe++ + 2.0H+ + 2.0SO4--
                    log_k   2.1778600000e+02
                    -analytical_expression  -3.590650000e+03 -5.804740000e-01 2.780960000e+05 1.292120000e+03 -1.320140000e+07
      Mg_Montmorillonite_Na
          Na0.33Mg0.33Al1.67Si4O10(OH)2 =  + 1.67Al+++ + 0.33Mg++ - 6.0H+ + 0.33Na+ + 4.0H4SiO4 - 4.0H2O
                    log_k   2.9990000000e+00
                    -analytical_expression  -8.181580000e+02 -1.388000000e-01 5.033090000e+04 2.921490000e+02 -2.593650000e+06
      Mg_Montmorillonite_Ca
          Ca0.17Mg0.33Al1.68Si3.99O10(OH)2 =  + 1.68Al+++ + 0.33Mg++ - 6.04H+ + 0.17Ca++ + 3.99H4SiO4 - 3.96H2O
                    log_k   4.5050000000e+00
                    -analytical_expression  -8.105480000e+02 -1.410010000e-01 5.013140000e+04 2.902200000e+02 -2.594250000e+06
      Kaolinite
          Al2Si2O5(OH)4 =  - 6.0H+ + 2.0Al+++ + 1.0H2O + 2.0H4SiO4
                    log_k   6.4710000000e+00
                    -analytical_expression  -9.167890000e+02 -1.502080000e-01 5.424040000e+04 3.286600000e+02 -2.411290000e+06
      Dolomite
          CaMg(CO3)2 =  - 2.0H+ + 2.0HCO3- + 1.0Ca++ + 1.0Mg++
                    log_k   3.5330000000e+00
                    -analytical_expression  -1.792360000e+03 -2.896350000e-01 9.959450000e+04 6.511450000e+02 -5.600840000e+06
      Calcite
          CaCO3 =  - 1.0H+ + 1.0HCO3- + 1.0Ca++
                    log_k   1.8470000000e+00
                    -analytical_expression  -8.501020000e+02 -1.394710000e-01 4.688100000e+04 3.096490000e+02 -2.659150000e+06
      Siderite
          FeCO3 =  - 1.0H+ + 1.0HCO3- + 1.0Fe++
                    log_k   -4.7300000000e-01
                    -analytical_expression  -9.155240000e+02 -1.476850000e-01 5.056030000e+04 3.321220000e+02 -2.872180000e+06
      Anhydrite
          CaSO4 =  + 1.0Ca++ + 1.0SO4--
                    log_k   -4.4360000000e+00
                    -analytical_expression  -1.618078300e+03 -2.620443100e-01 8.958534800e+04 5.866328800e+02 -5.358932400e+06
      Illite_Mg_new
          K0.85Mg0.25Al2.35Si3.4O10(OH)2 =  - 8.4H+ - 1.6H2O + 2.35Al+++ + 0.85K+ + 0.25Mg++ + 3.4H4SiO4
                    log_k   1.0343600000e+01
                    -analytical_expression  -1.130200000e+03 -1.927450000e-01 7.044020000e+04 4.045930000e+02 -3.501160000e+06
      CO2(g)
          CO2 =  + 1.0HCO3- - 1.0H2O + 1.0H+
                    log_k   -7.8250000000e+00
                    -analytical_expression  -5.931450000e+02 -9.607500000e-02 3.254710000e+04 2.127920000e+02 -1.932480000e+06

SOLUTION                  1-1 ultimate
   temp 8.0000000000e+01
   pH    6.2000000000e+00 
   pe    4.0000000000e+00
   units mol/l
                       Ca    4.2200000000e-02
                       Mg    1.1200000000e-02
                       Na    8.0000000000e-02
                        K    1.8500000000e-02
                       Fe    1.2200000000e-05
                       Si    6.5500000000e-04
                     C(4)    2.0000000000e-03
                     S(6)    6.1600000000e-03
                       Al    1.2100000000e-08
                       Cl    1.9200000000e-01 charge 

EQUILIBRIUM_PHASES        1-1 ultimate
                  Calcite    0.0000000e+00  9.5023556e+00
                Anhydrite    0.0000000e+00  7.4418605e-01
                 Dolomite    0.0000000e+00  2.6598307e-01
                   CO2(g)    1.9190000e+00  1.0000000e+01
SELECTED_OUTPUT
  -high_precision true
KNOBS
  -iterations 500
  -diag true 
  -tolerance 1.e-15
SOLUTION 0
PRINT
  -reset	true
# hereafter the -cells parameter is the 
# only relevant parameter 
TRANSPORT
  -cells          0
  -time_step          100.
  -shifts          5
  -lengths        0.1
  -flow_direction diff
  -boundary_conditions        closed closed
  -print_frequency      1
  -warnings False
END
