
SOLUTION_MASTER_SPECIES

                 Na   Na+    0.00000         Na   22.98980
                   K   K+    0.00000          K   39.10200
                   T   T+    0.00000          T   35.00000
                 Cl   Cl-    0.00000         Cl   35.45300

SOLUTION_SPECIES

           + 1.0Na+ = Na+
                    log_k   0.0000000000e+00
#
           + 1.0K+ = K+
                    log_k   0.0000000000e+00
#
           + 1.0T+ = T+
                    log_k   0.0000000000e+00
#
           + 1.0Cl- = Cl-
                    log_k   0.0000000000e+00
#

EXCHANGE_SPECIES

                Na+ + X-  = NaX
                    log_k   0.0000000000e+00
                K+ + X-  = KX
                    log_k   3.0100000000e-01

SOLUTION                  101-101 boundary
   temp 2.5000000000e+01
   pH    7.0000000000e+00 
   pe    4.0000000000e+00
   units mol/l
                        K    1.0000000000e-06
                        T    1.0000000000e-06
                       Na    1.0000000000e-02
                       Cl    1.0000000000e-02

SOLUTION                  1-100 column
   temp 2.5000000000e+01
   pH    7.0000000000e+00 
   pe    4.0000000000e+00
   units mol/l
                       Na    1.0000000000e-02
                       Cl    1.0000000000e-02
                        K    1.0000000000e-10

EXCHANGE                  1-100 column
               equilibrate       1
                       X-    1.0000000000e-02
SELECTED_OUTPUT
  -high_precision true
KNOBS
  -iterations 500
  -diag true 
  -tolerance 1.e-15
SOLUTION 0
PRINT
  -reset	true
# hereafter the -cells parameter is the 
# only relevant parameter 
TRANSPORT
  -cells          101
  -time_step          100.
  -shifts          5
  -lengths        0.1
  -flow_direction diff
  -boundary_conditions        closed closed
  -print_frequency      1
  -warnings False
END
