 MT3D2.00.96
            0
            0
            0
            0
            0
            0
            1
            1
            0
 impression de KPER
            1
            1
          201
            1
            1
 THKSAT          
   -111.0000000000000        -111.0000000000000        -111.0000000000000      
   -111.0000000000000        -111.0000000000000        -111.0000000000000      
   -111.0000000000000        -111.0000000000000        -111.0000000000000      
   -111.0000000000000        -111.0000000000000        -111.0000000000000      
   -111.0000000000000        -111.0000000000000        -111.0000000000000      
   -111.0000000000000        -111.0000000000000        -111.0000000000000      
   -111.0000000000000        -111.0000000000000        -111.0000000000000      
   -111.0000000000000        -111.0000000000000        -111.0000000000000      
   -111.0000000000000        -111.0000000000000        -111.0000000000000      
   -111.0000000000000        -111.0000000000000        -111.0000000000000      
   -111.0000000000000        -111.0000000000000        -111.0000000000000      
   -111.0000000000000        -111.0000000000000        -111.0000000000000      
   -111.0000000000000        -111.0000000000000        -111.0000000000000      
   -111.0000000000000        -111.0000000000000        -111.0000000000000      
   -111.0000000000000        -111.0000000000000        -111.0000000000000      
   -111.0000000000000        -111.0000000000000        -111.0000000000000      
   -111.0000000000000        -111.0000000000000        -111.0000000000000      
   -111.0000000000000        -111.0000000000000        -111.0000000000000      
   -111.0000000000000        -111.0000000000000        -111.0000000000000      
   -111.0000000000000        -111.0000000000000        -111.0000000000000      
   -111.0000000000000        -111.0000000000000        -111.0000000000000      
   -111.0000000000000        -111.0000000000000        -111.0000000000000      
   -111.0000000000000        -111.0000000000000        -111.0000000000000      
   -111.0000000000000        -111.0000000000000        -111.0000000000000      
   -111.0000000000000        -111.0000000000000        -111.0000000000000      
   -111.0000000000000        -111.0000000000000        -111.0000000000000      
   -111.0000000000000        -111.0000000000000        -111.0000000000000      
   -111.0000000000000        -111.0000000000000        -111.0000000000000      
   -111.0000000000000        -111.0000000000000        -111.0000000000000      
   -111.0000000000000        -111.0000000000000        -111.0000000000000      
   -111.0000000000000        -111.0000000000000        -111.0000000000000      
   -111.0000000000000        -111.0000000000000        -111.0000000000000      
   -111.0000000000000        -111.0000000000000        -111.0000000000000      
   -111.0000000000000        -111.0000000000000        -111.0000000000000      
   -111.0000000000000        -111.0000000000000        -111.0000000000000      
   -111.0000000000000        -111.0000000000000        -111.0000000000000      
   -111.0000000000000        -111.0000000000000        -111.0000000000000      
   -111.0000000000000        -111.0000000000000        -111.0000000000000      
   -111.0000000000000        -111.0000000000000        -111.0000000000000      
   -111.0000000000000        -111.0000000000000        -111.0000000000000      
   -111.0000000000000        -111.0000000000000        -111.0000000000000      
   -111.0000000000000        -111.0000000000000        -111.0000000000000      
   -111.0000000000000        -111.0000000000000        -111.0000000000000      
   -111.0000000000000        -111.0000000000000        -111.0000000000000      
   -111.0000000000000        -111.0000000000000        -111.0000000000000      
   -111.0000000000000        -111.0000000000000        -111.0000000000000      
   -111.0000000000000        -111.0000000000000        -111.0000000000000      
   -111.0000000000000        -111.0000000000000        -111.0000000000000      
   -111.0000000000000        -111.0000000000000        -111.0000000000000      
   -111.0000000000000        -111.0000000000000        -111.0000000000000      
   -111.0000000000000        -111.0000000000000        -111.0000000000000      
   -111.0000000000000        -111.0000000000000        -111.0000000000000      
   -111.0000000000000        -111.0000000000000        -111.0000000000000      
   -111.0000000000000        -111.0000000000000        -111.0000000000000      
   -111.0000000000000        -111.0000000000000        -111.0000000000000      
   -111.0000000000000        -111.0000000000000        -111.0000000000000      
   -111.0000000000000        -111.0000000000000        -111.0000000000000      
   -111.0000000000000        -111.0000000000000        -111.0000000000000      
   -111.0000000000000        -111.0000000000000        -111.0000000000000      
   -111.0000000000000        -111.0000000000000        -111.0000000000000      
   -111.0000000000000        -111.0000000000000        -111.0000000000000      
   -111.0000000000000        -111.0000000000000        -111.0000000000000      
   -111.0000000000000        -111.0000000000000        -111.0000000000000      
   -111.0000000000000        -111.0000000000000        -111.0000000000000      
   -111.0000000000000        -111.0000000000000        -111.0000000000000      
   -111.0000000000000        -111.0000000000000        -111.0000000000000      
   -111.0000000000000        -111.0000000000000        -111.0000000000000     
            1
            1
          201
            1
            1
 QXX             
   0.0000000000000000E+000   0.0000000000000000E+000   0.0000000000000000E+000 
   0.0000000000000000E+000   0.0000000000000000E+000   0.0000000000000000E+000 
   0.0000000000000000E+000   0.0000000000000000E+000   0.0000000000000000E+000 
   0.0000000000000000E+000   0.0000000000000000E+000   0.0000000000000000E+000 
   0.0000000000000000E+000   0.0000000000000000E+000   0.0000000000000000E+000 
   0.0000000000000000E+000   0.0000000000000000E+000   0.0000000000000000E+000 
   0.0000000000000000E+000   0.0000000000000000E+000   0.0000000000000000E+000 
   0.0000000000000000E+000   0.0000000000000000E+000   0.0000000000000000E+000 
   0.0000000000000000E+000   0.0000000000000000E+000   0.0000000000000000E+000 
   0.0000000000000000E+000   0.0000000000000000E+000   0.0000000000000000E+000 
   0.0000000000000000E+000   0.0000000000000000E+000   0.0000000000000000E+000 
   0.0000000000000000E+000   0.0000000000000000E+000   0.0000000000000000E+000 
   0.0000000000000000E+000   0.0000000000000000E+000   0.0000000000000000E+000 
   0.0000000000000000E+000   0.0000000000000000E+000   0.0000000000000000E+000 
   0.0000000000000000E+000   0.0000000000000000E+000   0.0000000000000000E+000 
   0.0000000000000000E+000   0.0000000000000000E+000   0.0000000000000000E+000 
   0.0000000000000000E+000   0.0000000000000000E+000   0.0000000000000000E+000 
   0.0000000000000000E+000   0.0000000000000000E+000   0.0000000000000000E+000 
   0.0000000000000000E+000   0.0000000000000000E+000   0.0000000000000000E+000 
   0.0000000000000000E+000   0.0000000000000000E+000   0.0000000000000000E+000 
   0.0000000000000000E+000   0.0000000000000000E+000   0.0000000000000000E+000 
   0.0000000000000000E+000   0.0000000000000000E+000   0.0000000000000000E+000 
   0.0000000000000000E+000   0.0000000000000000E+000   0.0000000000000000E+000 
   0.0000000000000000E+000   0.0000000000000000E+000   0.0000000000000000E+000 
   0.0000000000000000E+000   0.0000000000000000E+000   0.0000000000000000E+000 
   0.0000000000000000E+000   0.0000000000000000E+000   0.0000000000000000E+000 
   0.0000000000000000E+000   0.0000000000000000E+000   0.0000000000000000E+000 
   0.0000000000000000E+000   0.0000000000000000E+000   0.0000000000000000E+000 
   0.0000000000000000E+000   0.0000000000000000E+000   0.0000000000000000E+000 
   0.0000000000000000E+000   0.0000000000000000E+000   0.0000000000000000E+000 
   0.0000000000000000E+000   0.0000000000000000E+000   0.0000000000000000E+000 
   0.0000000000000000E+000   0.0000000000000000E+000   0.0000000000000000E+000 
   0.0000000000000000E+000   0.0000000000000000E+000   0.0000000000000000E+000 
   0.0000000000000000E+000   0.0000000000000000E+000   0.0000000000000000E+000 
   0.0000000000000000E+000   0.0000000000000000E+000   0.0000000000000000E+000 
   0.0000000000000000E+000   0.0000000000000000E+000   0.0000000000000000E+000 
   0.0000000000000000E+000   0.0000000000000000E+000   0.0000000000000000E+000 
   0.0000000000000000E+000   0.0000000000000000E+000   0.0000000000000000E+000 
   0.0000000000000000E+000   0.0000000000000000E+000   0.0000000000000000E+000 
   0.0000000000000000E+000   0.0000000000000000E+000   0.0000000000000000E+000 
   0.0000000000000000E+000   0.0000000000000000E+000   0.0000000000000000E+000 
   0.0000000000000000E+000   0.0000000000000000E+000   0.0000000000000000E+000 
   0.0000000000000000E+000   0.0000000000000000E+000   0.0000000000000000E+000 
   0.0000000000000000E+000   0.0000000000000000E+000   0.0000000000000000E+000 
   0.0000000000000000E+000   0.0000000000000000E+000   0.0000000000000000E+000 
   0.0000000000000000E+000   0.0000000000000000E+000   0.0000000000000000E+000 
   0.0000000000000000E+000   0.0000000000000000E+000   0.0000000000000000E+000 
   0.0000000000000000E+000   0.0000000000000000E+000   0.0000000000000000E+000 
   0.0000000000000000E+000   0.0000000000000000E+000   0.0000000000000000E+000 
   0.0000000000000000E+000   0.0000000000000000E+000   0.0000000000000000E+000 
   0.0000000000000000E+000   0.0000000000000000E+000   0.0000000000000000E+000 
   0.0000000000000000E+000   0.0000000000000000E+000   0.0000000000000000E+000 
   0.0000000000000000E+000   0.0000000000000000E+000   0.0000000000000000E+000 
   0.0000000000000000E+000   0.0000000000000000E+000   0.0000000000000000E+000 
   0.0000000000000000E+000   0.0000000000000000E+000   0.0000000000000000E+000 
   0.0000000000000000E+000   0.0000000000000000E+000   0.0000000000000000E+000 
   0.0000000000000000E+000   0.0000000000000000E+000   0.0000000000000000E+000 
   0.0000000000000000E+000   0.0000000000000000E+000   0.0000000000000000E+000 
   0.0000000000000000E+000   0.0000000000000000E+000   0.0000000000000000E+000 
   0.0000000000000000E+000   0.0000000000000000E+000   0.0000000000000000E+000 
   0.0000000000000000E+000   0.0000000000000000E+000   0.0000000000000000E+000 
   0.0000000000000000E+000   0.0000000000000000E+000   0.0000000000000000E+000 
   0.0000000000000000E+000   0.0000000000000000E+000   0.0000000000000000E+000 
   0.0000000000000000E+000   0.0000000000000000E+000   0.0000000000000000E+000 
   0.0000000000000000E+000   0.0000000000000000E+000   0.0000000000000000E+000 
   0.0000000000000000E+000   0.0000000000000000E+000   0.0000000000000000E+000 
   0.0000000000000000E+000   0.0000000000000000E+000   0.0000000000000000E+000
